Version 4
SHEET 1 1876 828
WIRE 528 -112 496 -112
WIRE 560 -112 528 -112
WIRE 560 -64 560 -112
WIRE 688 -64 560 -64
WIRE 688 -48 560 -48
WIRE 880 -48 752 -48
WIRE 896 -48 880 -48
WIRE 688 -32 656 -32
WIRE 656 -16 656 -32
WIRE 688 -16 656 -16
WIRE 656 0 656 -16
WIRE 688 0 656 0
WIRE 1376 0 1344 0
WIRE 1488 0 1376 0
WIRE 1680 0 1584 0
WIRE 256 32 144 32
WIRE 384 32 256 32
WIRE 560 48 560 -48
WIRE 560 48 448 48
WIRE 1152 48 1088 48
WIRE 1216 48 1152 48
WIRE 1488 48 1280 48
WIRE 1600 48 1584 48
WIRE 1680 48 1600 48
WIRE -368 64 -464 64
WIRE -320 64 -368 64
WIRE 656 64 656 0
WIRE 752 64 656 64
WIRE 768 64 752 64
WIRE 192 80 112 80
WIRE 384 80 192 80
WIRE 656 80 656 64
WIRE 112 112 112 80
WIRE -464 128 -464 64
WIRE 1600 288 1568 288
WIRE 1072 320 1024 320
WIRE 1504 320 1072 320
WIRE 1584 320 1568 320
WIRE 1744 320 1584 320
WIRE 1872 320 1808 320
WIRE 1504 336 1472 336
WIRE 1584 368 1584 320
WIRE 1584 368 1456 368
WIRE 1472 384 1472 336
WIRE 1600 384 1472 384
WIRE 1584 416 1568 416
WIRE 1456 448 1456 368
WIRE 1504 448 1456 448
WIRE 1600 448 1600 384
WIRE 1600 448 1568 448
WIRE 1072 464 1024 464
WIRE 1152 464 1072 464
WIRE 1344 464 1280 464
WIRE 1504 464 1344 464
FLAG 112 192 0
FLAG 400 96 0
FLAG 704 0 0
FLAG -464 208 0
FLAG -368 64 nReset
FLAG 528 -112 nReset
FLAG 880 -48 DATA_CLOCKING
FLAG 256 32 DATA_CLOCKING
FLAG 656 160 0
FLAG 1488 80 0
FLAG 192 80 DRDY
FLAG 1376 0 DRDY
FLAG 1152 48 nReset
FLAG 1216 64 0
FLAG 1520 464 0
FLAG 1520 336 0
FLAG 1072 320 DRDY
FLAG 1072 464 nReset
FLAG 1152 336 0
FLAG 1280 336 0
FLAG 1280 512 0
FLAG 752 64 HI
FLAG 1168 480 0
FLAG 1744 336 0
FLAG 1072 656 SCLK
FLAG 1072 720 MISO1
FLAG 1072 784 MISO2
FLAG 1344 464 HI
SYMBOL voltage 112 96 R0
WINDOW 123 0 0 Left 0
WINDOW 39 0 0 Left 0
SYMATTR InstName V1
SYMATTR Value PULSE(0 1 .5 1n 1n .01 10)
SYMBOL Digital\\or 416 0 R0
SYMATTR InstName A1
SYMBOL Digital\\and 720 -96 R0
SYMATTR InstName A2
SYMBOL voltage -464 112 R0
WINDOW 123 0 0 Left 0
WINDOW 39 0 0 Left 0
SYMATTR InstName V2
SYMATTR Value PULSE(1 0 1.5 1n 1n .01 10)
SYMBOL voltage 656 64 R0
WINDOW 123 0 0 Left 0
WINDOW 39 0 0 Left 0
SYMATTR InstName V3
SYMATTR Value 1
SYMBOL Digital\\srflop 1536 -48 R0
SYMATTR InstName A3
SYMBOL Digital\\inv 1216 -16 R0
SYMATTR InstName A4
SYMBOL Digital\\or 1536 240 R0
SYMATTR InstName A10
SYMBOL Digital\\or 1536 368 R0
SYMATTR InstName A5
SYMBOL Digital\\inv 1744 256 R0
SYMATTR InstName A6
SYMBOL Digital\\inv 1152 400 R0
SYMATTR InstName A7
TEXT 80 216 Left 2 !.tran 5
RECTANGLE Normal 1824 544 1424 208 2
