Version 4
SHEET 1 2276 1108
WIRE 944 -64 896 -64
WIRE 1040 -64 1008 -64
WIRE 1216 -32 1136 -32
WIRE 1248 -32 1216 -32
WIRE 1104 -16 1104 -80
WIRE 1136 -16 1136 -32
WIRE 208 16 16 16
WIRE 496 16 208 16
WIRE 784 16 560 16
WIRE 896 16 864 16
WIRE 896 32 896 16
WIRE 1072 32 896 32
WIRE 1312 48 1232 48
WIRE 1472 48 1472 16
WIRE 1472 48 1392 48
WIRE 1584 48 1472 48
WIRE 16 64 16 16
WIRE 48 64 16 64
WIRE 144 64 128 64
WIRE 208 64 144 64
WIRE 400 64 208 64
WIRE 896 64 896 32
WIRE 944 64 896 64
WIRE 1040 64 1040 -64
WIRE 1040 64 1024 64
WIRE 1072 64 1040 64
WIRE 1472 64 1472 48
WIRE 2016 80 2000 80
WIRE 2032 80 2016 80
WIRE 2224 80 2176 80
WIRE 2256 80 2224 80
WIRE 400 96 400 64
WIRE 592 96 400 96
WIRE 784 96 656 96
WIRE 896 96 864 96
WIRE 1072 96 896 96
WIRE 16 112 16 64
WIRE 1296 112 1232 112
WIRE 896 128 896 96
WIRE 944 128 896 128
WIRE 1040 128 1024 128
WIRE 1072 128 1040 128
WIRE 1312 128 1296 112
WIRE 1472 128 1392 128
WIRE 1584 128 1472 128
WIRE 2000 128 2000 80
WIRE 2176 128 2176 80
WIRE 1472 160 1472 128
WIRE 1136 192 1136 176
WIRE 1184 192 1136 192
WIRE 144 208 144 64
WIRE 640 224 560 224
WIRE 704 224 640 224
WIRE 944 240 896 240
WIRE 1040 240 1040 128
WIRE 1040 240 1008 240
WIRE 1104 256 1104 176
WIRE 560 272 560 224
WIRE 2000 288 2000 208
WIRE 2176 288 2176 208
WIRE 16 320 16 192
WIRE 144 320 144 288
WIRE 144 320 16 320
WIRE 16 352 16 320
WIRE 912 832 784 832
WIRE 784 880 784 832
WIRE 784 1088 784 960
FLAG 16 352 0
FLAG 208 16 Mic+
FLAG 208 64 Mic-
FLAG 784 1088 0
FLAG 2016 80 5V
FLAG 2000 288 0
FLAG 1104 -80 5V
FLAG 1104 256 0
FLAG 1184 192 3.3V
FLAG 2176 288 0
FLAG 2224 80 Vocm
FLAG 1216 -32 Vocm
FLAG 640 224 MicSignal
FLAG 560 352 0
FLAG 1472 -48 0
FLAG 1472 224 0
SYMBOL bv 784 864 R0
SYMATTR InstName B1
SYMATTR Value V=V(Mic+)-V(Mic-)
SYMBOL OpAmps\\ADA4940 1104 80 R0
SYMATTR InstName U1
SYMBOL voltage 2000 112 R0
WINDOW 123 0 0 Left 0
WINDOW 39 0 0 Left 0
SYMATTR InstName V3
SYMATTR Value 5
SYMBOL cap 560 0 R90
WINDOW 0 0 32 VBottom 2
WINDOW 3 32 32 VTop 2
SYMATTR InstName C1
SYMATTR Value 47µF
SYMBOL cap 656 80 R90
WINDOW 0 0 32 VBottom 2
WINDOW 3 32 32 VTop 2
SYMATTR InstName C2
SYMATTR Value 47µF
SYMBOL res 1040 48 R90
WINDOW 0 0 56 VBottom 2
WINDOW 3 32 56 VTop 2
SYMATTR InstName R1
SYMATTR Value 2k
SYMBOL res 880 0 R90
WINDOW 0 0 56 VBottom 2
WINDOW 3 32 56 VTop 2
SYMATTR InstName R2
SYMATTR Value 550
SYMBOL res 880 80 R90
WINDOW 0 0 56 VBottom 2
WINDOW 3 32 56 VTop 2
SYMATTR InstName R3
SYMATTR Value 550
SYMBOL res 1040 112 R90
WINDOW 0 0 56 VBottom 2
WINDOW 3 32 56 VTop 2
SYMATTR InstName R4
SYMATTR Value 2k
SYMBOL res 1568 32 R0
SYMATTR InstName R5
SYMATTR Value 100k
SYMBOL voltage 2176 112 R0
WINDOW 123 0 0 Left 0
WINDOW 39 0 0 Left 0
SYMATTR InstName V4
SYMATTR Value {5/2}
SYMBOL res 144 48 R90
WINDOW 0 0 56 VBottom 2
WINDOW 3 32 56 VTop 2
SYMATTR InstName R6
SYMATTR Value 430
SYMBOL cap 1008 -80 R90
WINDOW 0 0 32 VBottom 2
WINDOW 3 32 32 VTop 2
SYMATTR InstName C3
SYMATTR Value 470pF
SYMBOL cap 1008 224 R90
WINDOW 0 0 32 VBottom 2
WINDOW 3 32 32 VTop 2
SYMATTR InstName C4
SYMATTR Value 470pF
SYMBOL res 1408 32 R90
WINDOW 0 0 56 VBottom 2
WINDOW 3 32 56 VTop 2
SYMATTR InstName R7
SYMATTR Value 33
SYMBOL res 1408 112 R90
WINDOW 0 0 56 VBottom 2
WINDOW 3 32 56 VTop 2
SYMATTR InstName R8
SYMATTR Value 33
SYMBOL cap 1456 64 R0
SYMATTR InstName C5
SYMATTR Value 10nF
SYMBOL voltage 560 256 R0
WINDOW 123 24 124 Left 2
WINDOW 39 0 0 Left 0
SYMATTR InstName V5
SYMATTR Value SINE(0 .56 30 0 0)
SYMATTR Value2 AC AC 1.
SYMBOL bv 144 192 R0
SYMATTR InstName B2
SYMATTR Value V=-V(MicSignal)+0.66
SYMBOL bv 16 96 R0
SYMATTR InstName B3
SYMATTR Value V=V(MicSignal)+0.72
SYMBOL cap 1456 160 R0
SYMATTR InstName C6
SYMATTR Value 10nF
SYMBOL cap 1456 -48 R0
SYMATTR InstName C7
SYMATTR Value 10nF
TEXT -18 376 Left 2 !.ac oct 24 1 100000
